Circuit: * D:\GitHub\SNSPDs-Probabilistic-Computing\snspd.asc

I1: Removing PWL point (1.00001e-011,0)
I1: Removing PWL point (2.16402e-008,0)
I1: Removing PWL point (9.09409e-008,0)
I1: Removing PWL point (2.75863e-007,0)
I1: Removing PWL point (3.26003e-007,0)
I1: Removing PWL point (3.50754e-007,0)
I1: Removing PWL point (4.11534e-007,0)
I1: Removing PWL point (5.99456e-007,0)
I1: Removing PWL point (7.63048e-007,0)
I1: Removing PWL point (7.91368e-007,0)
I1: Removing PWL point (8.12338e-007,0)
I1: Removing PWL point (8.68209e-007,0)
I1: Removing PWL point (9.28379e-007,0)
I1: Removing PWL point (9.9971e-007,0)
Per .tran options, skipping operating point for transient analysis.

Date: Fri Jun 21 14:01:03 2024
Total elapsed time: 4.880 seconds.

tnom = 27
temp = 27
method = modified trap
totiter = 1000483
traniter = 1000483
tranpoints = 500114
accept = 500114
rejected = 0
matrix size = 11
fillins = 2
solver = Normal
Matrix Compiler1:      25 opcodes  0.2/[0.1]/0.1
Matrix Compiler2: 725 bytes object code size  0.1/0.1/[0.1]

