Circuit: * D:\GitHub\SNSPDs-Simulation\spiceModel\snspd.asc

Direct Newton iteration for .op point succeeded.

Date: Mon Jul 08 12:05:22 2024
Total elapsed time: 0.856 seconds.

tnom = 27
temp = 27
method = modified trap
totiter = 201950
traniter = 201946
tranpoints = 100967
accept = 100964
rejected = 3
matrix size = 11
fillins = 3
solver = Normal
Matrix Compiler1: 436 bytes object code size  0.1/0.1/[0.1]
Matrix Compiler2: off  [0.1]/0.1/0.1

