Circuit: * D:\GitHub\SNSPDs-Simulation\spiceModel\snspd.asc

Per .tran options, skipping operating point for transient analysis.

Date: Fri Jul 05 16:33:50 2024
Total elapsed time: 0.922 seconds.

tnom = 27
temp = 27
method = modified trap
totiter = 200082
traniter = 200082
tranpoints = 100027
accept = 100027
rejected = 0
matrix size = 11
fillins = 2
solver = Normal
Matrix Compiler1:      25 opcodes  0.1/[0.1]/0.1
Matrix Compiler2: off  [0.1]/0.1/0.1

