Circuit: * D:\GitHub\SNSPDs-Simulation\spiceModel\snspd.asc

Direct Newton iteration for .op point succeeded.

Date: Sat Jul 06 17:28:49 2024
Total elapsed time: 0.099 seconds.

tnom = 27
temp = 27
method = modified trap
totiter = 22205
traniter = 22202
tranpoints = 11095
accept = 11079
rejected = 16
matrix size = 11
fillins = 3
solver = Normal
Matrix Compiler1:      26 opcodes  0.1/[0.1]/0.1
Matrix Compiler2: off  [0.1]/0.1/0.1

