Questionable use of curly braces in "i1 0 n002 pulse(0 1u 10n {t_rise} {t_fall} 10p {t_period} 2)"
    Error: undefined symbol in: "[t_rise]"
Questionable use of curly braces in "i1 0 n002 pulse(0 1u 10n (t_rise) {t_fall} 10p {t_period} 2)"
    Error: undefined symbol in: "[t_fall]"
Questionable use of curly braces in "i1 0 n002 pulse(0 1u 10n (t_rise) (t_fall) 10p {t_period} 2)"
    Error: undefined symbol in: "[t_period]"
Circuit: * D:\GitHub\SNSPDs-Simulation\spiceModel\snspd.asc

Error on line 4 : i1 0 n002 pulse(0 1u 10n (t_rise) (t_fall) 10p (t_period) 2)
	 Unknown parameter "t_rise"
Fatal Error: I1: requires a minimum of 5 parameters.  Only 3 specified.

